
 ANSYS Academic Research                           


 *------------------------------------------------------------------*
 |                                                                  |
 |   W E L C O M E   T O   T H E   A N S Y S (R)  P R O G R A M     |
 |                                                                  |
 *------------------------------------------------------------------*




 ***************************************************************
 *            ANSYS Release 16.1     LEGAL NOTICES             *
 ***************************************************************
 *                                                             *
 * Copyright 2015 SAS IP, Inc.  All rights reserved.           *
 * Unauthorized use, distribution or duplication is            *
 * prohibited.                                                 *
 *                                                             *
 * Ansys is a registered trademark of ANSYS, Inc. or its       *
 * subsidiaries in the United States or other countries.       *
 * See the ANSYS, Inc. online documentation or the ANSYS, Inc. *
 * documentation CD or online help for the complete Legal      *
 * Notice.                                                     *
 *                                                             *
 ***************************************************************
 *                                                             *
 * THIS ANSYS SOFTWARE PRODUCT AND PROGRAM DOCUMENTATION       *
 * INCLUDE TRADE SECRETS AND CONFIDENTIAL AND PROPRIETARY      *
 * PRODUCTS OF ANSYS, INC., ITS SUBSIDIARIES, OR LICENSORS.    *
 * The software products and documentation are furnished by    *
 * ANSYS, Inc. or its subsidiaries under a software license    *
 * agreement that contains provisions concerning               *
 * non-disclosure, copying, length and nature of use,          *
 * compliance with exporting laws, warranties, disclaimers,    *
 * limitations of liability, and remedies, and other           *
 * provisions.  The software products and documentation may be *
 * used, disclosed, transferred, or copied only in accordance  *
 * with the terms and conditions of that software license      *
 * agreement.                                                  *
 *                                                             *
 * ANSYS, Inc. is a UL registered                              *
 * ISO 9001:2008 company.                                      *
 *                                                             *
 ***************************************************************
 *                                                             *
 * This product is subject to U.S. laws governing export and   *
 * re-export.                                                  *
 *                                                             *
 * For U.S. Government users, except as specifically granted   *
 * by the ANSYS, Inc. software license agreement, the use,     *
 * duplication, or disclosure by the United States Government  *
 * is subject to restrictions stated in the ANSYS, Inc.        *
 * software license agreement and FAR 12.212 (for non-DOD      *
 * licenses).                                                  *
 *                                                             *
 ***************************************************************

 Release 16.1
     
 Point Releases and Patches installed:   
     
 ANSYS, Inc. Products Release 16.1   
 ANSYS Mechanical Products Release 16.1  
 ANSYS Customization Files for User Programmable Features Release 16.1   
 ANSYS Autodyn Release 16.1  
 ANSYS CFX (includes ANSYS CFD-Post) Release 16.1
 ANSYS Fluent (includes ANSYS CFD-Post) Release 16.1 
 ANSYS TurboGrid Release 16.1
 ANSYS Polyflow (includes ANSYS CFD-Post) Release 16.1   
 ANSYS CFD-Post only Release 16.1
 ANSYS ICEM CFD Release 16.1 
 ANSYS Composite PrepPost Release 16.1   
 ANSYS Icepak (includes ANSYS CFD-Post) Release 16.1 
 ANSYS, Inc. License Manager Release 16.1


          *****  ANSYS COMMAND LINE ARGUMENTS  *****
  BATCH MODE REQUESTED (-b)    = NOLIST
  INPUT FILE COPY MODE (-c)    = COPY
  SHARED MEMORY PARALLEL REQUESTED
    SINGLE PROCESS WITH   2 THREADS REQUESTED
    TOTAL OF     2 CORES REQUESTED
  DESIGNXPLORER REQUESTED
  START-UP FILE MODE           = NOREAD
  STOP FILE MODE               = NOREAD

 RELEASE= Release 16.1         BUILD= 16.1      UP20150325   VERSION=WINDOWS x64 
 CURRENT JOBNAME=file  21:37:38  FEB 02, 2016 CP=      0.967


 PARAMETER _DS_PROGRESS =     999.0000000    

 /INPUT FILE= ds.dat  LINE=       0



 DO NOT WRITE ELEMENT RESULTS INTO DATABASE

 *GET  _WALLSTRT  FROM  ACTI  ITEM=TIME WALL  VALUE=  21.6272222    

 TITLE= 
 RearWingAnsys--Static Structural (B5)                                         


 SET PARAMETER DIMENSIONS ON  _WB_PROJECTSCRATCH_DIR
  TYPE=STRI  DIMENSIONS=      248        1        1

 PARAMETER _WB_PROJECTSCRATCH_DIR(1) = C:\Users\hughest1\MATLABWorkspace\RGP005_AeroMounts\_ProjectScratch\ScrC941\

 SET PARAMETER DIMENSIONS ON  _WB_SOLVERFILES_DIR
  TYPE=STRI  DIMENSIONS=      248        1        1

 PARAMETER _WB_SOLVERFILES_DIR(1) = C:\Users\hughest1\MATLABWorkspace\RGP005_AeroMounts\RearWingAnsys_files\dp0\SYS\MECH\

 SET PARAMETER DIMENSIONS ON  _WB_USERFILES_DIR
  TYPE=STRI  DIMENSIONS=      248        1        1

 PARAMETER _WB_USERFILES_DIR(1) = C:\Users\hughest1\MATLABWorkspace\RGP005_AeroMounts\RearWingAnsys_files\user_files\
 --- Data in consistent BIN units. See Solving Units in the help system for more

 U.S. CUSTOMARY INCH UNITS SPECIFIED FOR INTERNAL    
  LENGTH      = INCHES (IN)
  MASS        = LBF-S**2/IN 
  TIME        = SECONDS (SEC)  
  TEMPERATURE = FAHRENHEIT
  TOFFSET     = 460.0
  FORCE       = LBF
  HEAT        = IN-LBF
  PRESSURE    = PSI (LBF/IN**2)
  ENERGY      = IN-LBF
  POWER       = IN-LBF/SEC

 INPUT  UNITS ARE ALSO SET TO BIN 

 *** ANSYS - ENGINEERING ANALYSIS SYSTEM  RELEASE Release 16.1     16.1     ***
 ANSYS Academic Research                           
 00202440  VERSION=WINDOWS x64   21:37:38  FEB 02, 2016 CP=      1.030

 RearWingAnsys--Static Structural (B5)                                         



          ***** ANSYS ANALYSIS DEFINITION (PREP7) *****
 *********** Nodes for the whole assembly ***********
 *********** Elements for Body 1 "MirrorBottom Mount Tabs-2" ***********
 *********** Elements for Body 2 "Bottom Mount Tabs-1" ***********
 *********** Send User Defined Coordinate System(s) ***********
 *********** Set Reference Temperature ***********
 *********** Send Materials ***********
 *********** Fixed Supports ***********
 *********** Create Bearing Load ***********
 *********** Create Bearing Load ***********


 ***** ROUTINE COMPLETED *****  CP =         1.388


 --- Number of total nodes = 80919
 --- Number of contact elements = 924
 --- Number of spring elements = 0
 --- Number of bearing elements = 0
 --- Number of solid elements = 17171
 --- Number of total elements = 18095

 *GET  _WALLBSOL  FROM  ACTI  ITEM=TIME WALL  VALUE=  21.6272222    
 ****************************************************************************
 *************************    SOLUTION       ********************************
 ****************************************************************************

 *****  ANSYS SOLUTION ROUTINE  *****


 PERFORM A STATIC ANALYSIS
  THIS WILL BE A NEW ANALYSIS

 USE PRECONDITIONED CONJUGATE GRADIENT SOLVER
  CONVERGENCE TOLERANCE = 1.00000E-08
  MAXIMUM ITERATION     = NumNode*DofPerNode*  1.0000    

 CONTACT INFORMATION PRINTOUT LEVEL       1

 NLDIAG: Nonlinear diagnostics CONT option is set to ON. 
         Writing frequency : each ITERATION.

 DO NOT SAVE ANY RESTART FILES AT ALL
 ****************************************************
 ******************* SOLVE FOR LS 1 ****************

 SELECT       FOR ITEM=TYPE COMPONENT=    
  IN RANGE         3 TO          3 STEP          1

        462  ELEMENTS (OF      18095  DEFINED) SELECTED BY  ESEL  COMMAND.

 SPECIFIED SURFACE LOAD PRES FOR ALL SELECTED ELEMENTS  LKEY =  5   KVAL = 1
     VALUES =     0.0000         1.0000         0.0000         0.0000    

 COORDINATE SYSTEM     11 DEFINITION.  TYPE= 0  (CARTESIAN)  
   XC,YC,ZC=  0.0000      0.0000      0.0000    
   ANGLES=  -70.98    0.00   28.48   PARAMETERS=   1.000   1.000
   ORIENTATION=  0.29 -0.83 -0.48   0.95  0.33  0.00   0.16 -0.45  0.88

 ACTIVE COORDINATE SYSTEM SET TO     11  (CARTESIAN)  

 ACTIVE COORDINATE SYSTEM SET TO      0  (CARTESIAN)  

 PARAMETER _V1 =    0.2865383877    

 PARAMETER _V2 =   -0.8310107274    

 PARAMETER _V3 =   -0.4767776456    

 *GET  _NECURR   FROM  ELEM  ITEM=COUN           VALUE=  462.000000    

 PARAMETER _ECURR =     0.000000000    

 PARAMETER _TOTAL =     0.000000000    

 *DO LOOP ON PARAMETER= _I FROM  1.0000     TO  462.00     BY  1.0000    

 PARAMETER _ECURR =     17172.00000    

 PARAMETER _NORMX =   -0.6840394620    

 PARAMETER _NORMY =    0.3743000011    

 PARAMETER _NORMZ =    0.6260906672    

 PARAMETER _NORMMAG =     1.000000000    

 PARAMETER _NORMX =   -0.6840394620    

 PARAMETER _NORMY =    0.3743000011    

 PARAMETER _NORMZ =    0.6260906672    

 PARAMETER _DOT =   -0.8055569150    

 *IF  _dot                              ( = -0.805557     )  GT  
      -.00001                           ( = -0.100000E-04 )  THEN    

 *ELSE

 ACTIVE COORDINATE SYSTEM SET TO     11  (CARTESIAN)  

 *GET  _INDD     FROM  ELEM   17172  ITEM=APRO X         VALUE= 0.107761854E-03

 ACTIVE COORDINATE SYSTEM SET TO      0  (CARTESIAN)  

 PARAMETER _TOTAL =    0.1077618536E-03

 *ENDIF

 *ENDDO  INDEX= _I                              

 *GET  _NECURR   FROM  ELEM  ITEM=COUN           VALUE=  231.000000    

 *IF  _necurr                           ( =   231.000     )  EQ  
      0                                 ( =   0.00000     )  THEN    

 *ENDIF

 PARAMETER _MAG =     80.96646202    

 PARAMETER _MAG =     4116.285580    

 SPECIFIED SURFACE LOAD PRES FOR ALL SELECTED ELEMENTS  LKEY =  5   KVAL = 1
     VALUES =     4116.3         23.200        -67.284        -38.603    

 ALL SELECT   FOR ITEM=NODE COMPONENT=    
  IN RANGE         1 TO      80919 STEP          1

      80919  NODES (OF      80919  DEFINED) SELECTED BY NSEL  COMMAND.

 ALL SELECT   FOR ITEM=ELEM COMPONENT=    
  IN RANGE         1 TO      18095 STEP          1

      18095  ELEMENTS (OF      18095  DEFINED) SELECTED BY  ESEL  COMMAND.

 SELECT       FOR ITEM=TYPE COMPONENT=    
  IN RANGE         4 TO          4 STEP          1

        462  ELEMENTS (OF      18095  DEFINED) SELECTED BY  ESEL  COMMAND.

 SPECIFIED SURFACE LOAD PRES FOR ALL SELECTED ELEMENTS  LKEY =  5   KVAL = 1
     VALUES =     0.0000         1.0000         0.0000         0.0000    

 COORDINATE SYSTEM     11 DEFINITION.  TYPE= 0  (CARTESIAN)  
   XC,YC,ZC=  0.0000      0.0000      0.0000    
   ANGLES=  -70.98    0.00   28.47   PARAMETERS=   1.000   1.000
   ORIENTATION=  0.29 -0.83 -0.48   0.95  0.33  0.00   0.16 -0.45  0.88

 ACTIVE COORDINATE SYSTEM SET TO     11  (CARTESIAN)  

 ACTIVE COORDINATE SYSTEM SET TO      0  (CARTESIAN)  

 PARAMETER _V1 =    0.2865434495    

 PARAMETER _V2 =   -0.8310254076    

 PARAMETER _V3 =   -0.4767490151    

 *GET  _NECURR   FROM  ELEM  ITEM=COUN           VALUE=  462.000000    

 PARAMETER _ECURR =     0.000000000    

 PARAMETER _TOTAL =     0.000000000    

 *DO LOOP ON PARAMETER= _I FROM  1.0000     TO  462.00     BY  1.0000    

 PARAMETER _ECURR =     17634.00000    

 PARAMETER _NORMX =   -0.7233543648    

 PARAMETER _NORMY =    0.2876516046    

 PARAMETER _NORMZ =    0.6277061551    

 PARAMETER _NORMMAG =     1.000000000    

 PARAMETER _NORMX =   -0.7233543648    

 PARAMETER _NORMY =    0.2876516046    

 PARAMETER _NORMZ =    0.6277061551    

 PARAMETER _DOT =   -0.7455765382    

 *IF  _dot                              ( = -0.745577     )  GT  
      -.00001                           ( = -0.100000E-04 )  THEN    

 *ELSE

 ACTIVE COORDINATE SYSTEM SET TO     11  (CARTESIAN)  

 *GET  _INDD     FROM  ELEM   17634  ITEM=APRO X         VALUE= 0.997381451E-04

 ACTIVE COORDINATE SYSTEM SET TO      0  (CARTESIAN)  

 PARAMETER _TOTAL =    0.9973814509E-04

 *ENDIF

 *ENDDO  INDEX= _I                              

 *GET  _NECURR   FROM  ELEM  ITEM=COUN           VALUE=  231.000000    

 *IF  _necurr                           ( =   231.000     )  EQ  
      0                                 ( =   0.00000     )  THEN    

 *ENDIF

 PARAMETER _MAG =     80.96503173    

 PARAMETER _MAG =     4116.210851    

 SPECIFIED SURFACE LOAD PRES FOR ALL SELECTED ELEMENTS  LKEY =  5   KVAL = 1
     VALUES =     4116.2         23.200        -67.284        -38.600    

 ALL SELECT   FOR ITEM=NODE COMPONENT=    
  IN RANGE         1 TO      80919 STEP          1

      80919  NODES (OF      80919  DEFINED) SELECTED BY NSEL  COMMAND.

 ALL SELECT   FOR ITEM=ELEM COMPONENT=    
  IN RANGE         1 TO      18095 STEP          1

      18095  ELEMENTS (OF      18095  DEFINED) SELECTED BY  ESEL  COMMAND.

 PRINTOUT RESUMED BY /GOP

 USE       1 SUBSTEPS INITIALLY THIS LOAD STEP FOR ALL  DEGREES OF FREEDOM
 FOR AUTOMATIC TIME STEPPING:
   USE      1 SUBSTEPS AS A MAXIMUM
   USE      1 SUBSTEPS AS A MINIMUM

 TIME=  1.0000    

 ERASE THE CURRENT DATABASE OUTPUT CONTROL TABLE.


 WRITE ALL  ITEMS TO THE DATABASE WITH A FREQUENCY OF NONE
   FOR ALL APPLICABLE ENTITIES

 WRITE NSOL ITEMS TO THE DATABASE WITH A FREQUENCY OF ALL 
   FOR ALL APPLICABLE ENTITIES

 WRITE RSOL ITEMS TO THE DATABASE WITH A FREQUENCY OF ALL 
   FOR ALL APPLICABLE ENTITIES

 WRITE STRS ITEMS TO THE DATABASE WITH A FREQUENCY OF ALL 
   FOR ALL APPLICABLE ENTITIES

 WRITE EPEL ITEMS TO THE DATABASE WITH A FREQUENCY OF ALL 
   FOR ALL APPLICABLE ENTITIES

 WRITE EPPL ITEMS TO THE DATABASE WITH A FREQUENCY OF ALL 
   FOR ALL APPLICABLE ENTITIES

 NONLINEAR STABILIZATION CONTROL:
 KEY=OFF 


 *GET  ANSINTER_  FROM  ACTI  ITEM=INT        VALUE=  0.00000000    

 *IF  ANSINTER_                         ( =   0.00000     )  NE  
      0                                 ( =   0.00000     )  THEN    

 *ENDIF

 *****  ANSYS SOLVE    COMMAND  *****

 *** WARNING ***                         CP =       1.544   TIME= 21:37:38
 Element shape checking is currently inactive.  Issue SHPP,ON or         
 SHPP,WARN to reactivate, if desired.                                    

 *** NOTE ***                            CP =       1.950   TIME= 21:37:38
 The model data was checked and warning messages were found.             
  Please review output or errors file (                                  
 C:\Users\hughest1\MATLABWorkspace\RGP005_AeroMounts\_ProjectScratch\Scr 
 rC941\file.err ) for these warning messages.                            

 *** SELECTION OF ELEMENT TECHNOLOGIES FOR APPLICABLE ELEMENTS ***
      --- GIVE SUGGESTIONS AND RESET THE KEY OPTIONS ---

 ELEMENT TYPE    1 IS SOLID186. KEYOPT(2)=0 IS SUGGESTED AND HAS BEEN RESET.
  KEYOPT(1-12)=    0    0    0    0    0    0    0    0    0    0    0    0

 ELEMENT TYPE    2 IS SOLID186. KEYOPT(2)=0 IS SUGGESTED AND HAS BEEN RESET.
  KEYOPT(1-12)=    0    0    0    0    0    0    0    0    0    0    0    0



 *** ANSYS - ENGINEERING ANALYSIS SYSTEM  RELEASE Release 16.1     16.1     ***
 ANSYS Academic Research                           
 00202440  VERSION=WINDOWS x64   21:37:38  FEB 02, 2016 CP=      1.950

 RearWingAnsys--Static Structural (B5)                                         



                       S O L U T I O N   O P T I O N S

   PROBLEM DIMENSIONALITY. . . . . . . . . . . . .3-D                  
   DEGREES OF FREEDOM. . . . . . UX   UY   UZ  
   ANALYSIS TYPE . . . . . . . . . . . . . . . . .STATIC (STEADY-STATE)
   OFFSET TEMPERATURE FROM ABSOLUTE ZERO . . . . .  459.67    
   EQUATION SOLVER OPTION. . . . . . . . . . . . .PCG                
      TOLERANCE. . . . . . . . . . . . . . . . . . 1.00000E-08
   GLOBALLY ASSEMBLED MATRIX . . . . . . . . . . .SYMMETRIC  

 *** WARNING ***                         CP =       2.012   TIME= 21:37:38
 Material number 3 (used by element 17172 ) should normally have at      
 least one MP or one TB type command associated with it.  Output of      
 energy by material may not be available.                                

 *** NOTE ***                            CP =       2.012   TIME= 21:37:38
 The step data was checked and warning messages were found.              
  Please review output or errors file (                                  
 C:\Users\hughest1\MATLABWorkspace\RGP005_AeroMounts\_ProjectScratch\Scr 
 rC941\file.err ) for these warning messages.                            

 *** NOTE ***                            CP =       2.012   TIME= 21:37:38
 The conditions for direct assembly have been met.  No .emat or .erot    
 files will be produced.                                                 

                      L O A D   S T E P   O P T I O N S

   LOAD STEP NUMBER. . . . . . . . . . . . . . . .     1
   TIME AT END OF THE LOAD STEP. . . . . . . . . .  1.0000    
   NUMBER OF SUBSTEPS. . . . . . . . . . . . . . .     1
   STEP CHANGE BOUNDARY CONDITIONS . . . . . . . .    NO
   PRINT OUTPUT CONTROLS . . . . . . . . . . . . .NO PRINTOUT
   DATABASE OUTPUT CONTROLS
      ITEM     FREQUENCY   COMPONENT
       ALL       NONE               
      NSOL        ALL               
      RSOL        ALL               
      STRS        ALL               
      EPEL        ALL               
      EPPL        ALL               


 SOLUTION MONITORING INFO IS WRITTEN TO FILE= file.mntr                                                                                                                                                                                                                                                           


 *** NOTE ***                            CP =       2.636   TIME= 21:37:39
 The PCG solver has automatically set the level of difficulty for this   
 model to 1.                                                             

 Range of element maximum matrix coefficients in global coordinates
 Maximum = 3052616.06 at element 4809.                                   
 Minimum = 259992.398 at element 16822.                                  

   *** ELEMENT MATRIX FORMULATION TIMES
  TYPE    NUMBER   ENAME      TOTAL CP  AVE CP

     1      8659  SOLID186      2.527   0.000292
     2      8512  SOLID186      2.215   0.000260
     3       462  SURF154       0.000   0.000000
     4       462  SURF154       0.062   0.000135
 Time at end of element matrix formulation CP = 5.22603321.              
 curEqn=   5730  totEqn=   5730 Job CP sec=      3.811
      Factor Done= 100% Factor Wall sec=      0.010 rate=   11416.5 Mflops
 Iteration=    10 Ratio=  0.202633     Limit=  1.000000E-08 Wall=     0.2
 Iteration=    75 Ratio=  8.272155E-04 Limit=  1.000000E-08 Wall=     2.1
 Iteration=   205 Ratio=  3.161821E-06 Limit=  1.000000E-08 Wall=     5.8

 PRECONDITIONED SOLVER CP TIME      =    10.173
 PRECONDITIONED SOLVER ELAPSED TIME =    10.172

   *** ELEMENT RESULT CALCULATION TIMES
  TYPE    NUMBER   ENAME      TOTAL CP  AVE CP

     1      8659  SOLID186      1.310   0.000151
     2      8512  SOLID186      1.279   0.000150
     3       462  SURF154       0.031   0.000068
     4       462  SURF154       0.000   0.000000

   *** NODAL LOAD CALCULATION TIMES
  TYPE    NUMBER   ENAME      TOTAL CP  AVE CP

     1      8659  SOLID186      0.094   0.000011
     2      8512  SOLID186      0.031   0.000004
     3       462  SURF154       0.031   0.000068
     4       462  SURF154       0.000   0.000000
 *** LOAD STEP     1   SUBSTEP     1  COMPLETED.    CUM ITER =      1
 *** TIME =   1.00000         TIME INC =   1.00000      NEW TRIANG MATRIX


 *** ANSYS BINARY FILE STATISTICS
  BUFFER SIZE USED= 16384
       25.938 MB WRITTEN ON RESULTS FILE: file.rst
 *************** Write FE CONNECTORS *********

 WRITE OUT CONSTRAINT EQUATIONS TO FILE= file.ce                                                                                                                                                                                                                                                             
 ****************************************************
 *************** FINISHED SOLVE FOR LS 1 *************

 PARAMETER _DS_PROGRESS  DELETED.

 *GET  _WALLASOL  FROM  ACTI  ITEM=TIME WALL  VALUE=  21.6308333    

 PRINTOUT RESUMED BY /GOP

 *GET  _PCGITER  FROM  ACTI  ITEM=SOLU CGIT  VALUE=  339.000000    

 FINISH SOLUTION PROCESSING


 ***** ROUTINE COMPLETED *****  CP =        27.581



 *** ANSYS - ENGINEERING ANALYSIS SYSTEM  RELEASE Release 16.1     16.1     ***
 ANSYS Academic Research                           
 00202440  VERSION=WINDOWS x64   21:37:51  FEB 02, 2016 CP=     27.612

 RearWingAnsys--Static Structural (B5)                                         



          ***** ANSYS RESULTS INTERPRETATION (POST1) *****

 *** NOTE ***                            CP =      27.612   TIME= 21:37:51
 Reading results into the database (SET command) will update the current 
 displacement and force boundary conditions in the database with the     
 values from the results file for that load set.  Note that any          
 subsequent solutions will use these values unless action is taken to    
 either SAVE the current values or not overwrite them (/EXIT,NOSAVE).    

 Set Encoding of XML File to:ISO-8859-1

 Set Output of XML File to:
     PARM,     ,     ,     ,     ,     ,     ,     ,     ,     ,     ,     ,
         ,     ,     ,     ,     ,     ,     ,

 DATABASE WRITTEN ON FILE  parm.xml                                                                                                                                                                                                                                                            

 EXIT THE ANSYS POST1 DATABASE PROCESSOR


 ***** ROUTINE COMPLETED *****  CP =        27.612



 PRINTOUT RESUMED BY /GOP

 *GET  _WALLDONE  FROM  ACTI  ITEM=TIME WALL  VALUE=  21.6308333    

 PARAMETER _PREPTIME =     0.000000000    

 PARAMETER _SOLVTIME =     13.00000000    

 PARAMETER _POSTTIME =     0.000000000    

 PARAMETER _TOTALTIM =     13.00000000    

 EXIT ANSYS WITHOUT SAVING DATABASE


 NUMBER OF WARNING MESSAGES ENCOUNTERED=          2
 NUMBER OF ERROR   MESSAGES ENCOUNTERED=          0

+--------------------- A N S Y S   S T A T I S T I C S ------------------------+

Release: Release 16.1       Build: 16.1       Update: UP20150325   Platform: WINDOWS x64 
Date Run: 02/02/2016   Time: 21:37
Windows Process ID:         9748

Processor Model: Intel(R) Core(TM) i7-4710MQ CPU @ 2.50GHz

Compiler: Intel(R) FORTRAN Compiler Version 14.0.0  (Build: 20140422)
          Intel(R) C/C++ Compiler Version 14.0.0  (Build: 20140422)
          Intel(R) Math Kernel Library Version 11.1.3 Product Build 20140917

Total number of cores available         :    8
Number of physical cores available      :    4
Number of processes requested           :    1
Number of threads per process requested :    2
Total number of cores requested         :    2 (Shared Memory Parallel)                    

GPU Acceleration: Not Requested

Job Name: file
Working Directory: C:\Users\hughest1\MATLABWorkspace\RGP005_AeroMounts\_ProjectScratch\ScrC941

Total CPU time for main thread                    :       14.4 seconds
Total CPU time summed for all threads             :       27.7 seconds

Elapsed time spent pre-processing model (/PREP7)  :        0.2 seconds
Elapsed time spent solution - preprocessing       :        0.6 seconds
Elapsed time spent computing solution             :       12.4 seconds
Elapsed time spent solution - postprocessing      :        0.0 seconds
Elapsed time spent post-processing model (/POST1) :        0.0 seconds

Equation solver computational rate                :     7727.8 Mflops

Maximum total memory used                         :      265.0 MB
Maximum total memory allocated                    :     2112.0 MB
Maximum total memory available                    :          8 GB

+------------------ E N D   A N S Y S   S T A T I S T I C S -------------------+


 *---------------------------------------------------------------------------*
 |                                                                           |
 |                            ANSYS RUN COMPLETED                            |
 |                                                                           |
 |---------------------------------------------------------------------------|
 |                                                                           |
 | Ansys Release 16.1          Build 16.1         UP20150325     WINDOWS x64 |
 |                                                                           |
 |---------------------------------------------------------------------------|
 |                                                                           |
 | Database Requested(-db)  1024 MB    Scratch Memory Requested      1024 MB |
 | Maximum Database Used      40 MB    Maximum Scratch Memory Used    225 MB |
 |                                                                           |
 |---------------------------------------------------------------------------|
 |                                                                           |
 |        CP Time      (sec) =         27.721       Time  =  21:37:52        |
 |        Elapsed Time (sec) =         16.000       Date  =  02/02/2016      |
 |                                                                           |
 *---------------------------------------------------------------------------*
