
 ANSYS Academic Research                           


 *------------------------------------------------------------------*
 |                                                                  |
 |   W E L C O M E   T O   T H E   A N S Y S (R)  P R O G R A M     |
 |                                                                  |
 *------------------------------------------------------------------*




 ***************************************************************
 *            ANSYS Release 16.1     LEGAL NOTICES             *
 ***************************************************************
 *                                                             *
 * Copyright 2015 SAS IP, Inc.  All rights reserved.           *
 * Unauthorized use, distribution or duplication is            *
 * prohibited.                                                 *
 *                                                             *
 * Ansys is a registered trademark of ANSYS, Inc. or its       *
 * subsidiaries in the United States or other countries.       *
 * See the ANSYS, Inc. online documentation or the ANSYS, Inc. *
 * documentation CD or online help for the complete Legal      *
 * Notice.                                                     *
 *                                                             *
 ***************************************************************
 *                                                             *
 * THIS ANSYS SOFTWARE PRODUCT AND PROGRAM DOCUMENTATION       *
 * INCLUDE TRADE SECRETS AND CONFIDENTIAL AND PROPRIETARY      *
 * PRODUCTS OF ANSYS, INC., ITS SUBSIDIARIES, OR LICENSORS.    *
 * The software products and documentation are furnished by    *
 * ANSYS, Inc. or its subsidiaries under a software license    *
 * agreement that contains provisions concerning               *
 * non-disclosure, copying, length and nature of use,          *
 * compliance with exporting laws, warranties, disclaimers,    *
 * limitations of liability, and remedies, and other           *
 * provisions.  The software products and documentation may be *
 * used, disclosed, transferred, or copied only in accordance  *
 * with the terms and conditions of that software license      *
 * agreement.                                                  *
 *                                                             *
 * ANSYS, Inc. is a UL registered                              *
 * ISO 9001:2008 company.                                      *
 *                                                             *
 ***************************************************************
 *                                                             *
 * This product is subject to U.S. laws governing export and   *
 * re-export.                                                  *
 *                                                             *
 * For U.S. Government users, except as specifically granted   *
 * by the ANSYS, Inc. software license agreement, the use,     *
 * duplication, or disclosure by the United States Government  *
 * is subject to restrictions stated in the ANSYS, Inc.        *
 * software license agreement and FAR 12.212 (for non-DOD      *
 * licenses).                                                  *
 *                                                             *
 ***************************************************************

 Release 16.1
     
 Point Releases and Patches installed:   
     
 ANSYS, Inc. Products Release 16.1   
 ANSYS Mechanical Products Release 16.1  
 ANSYS Customization Files for User Programmable Features Release 16.1   
 ANSYS Autodyn Release 16.1  
 ANSYS CFX (includes ANSYS CFD-Post) Release 16.1
 ANSYS Fluent (includes ANSYS CFD-Post) Release 16.1 
 ANSYS TurboGrid Release 16.1
 ANSYS Polyflow (includes ANSYS CFD-Post) Release 16.1   
 ANSYS CFD-Post only Release 16.1
 ANSYS ICEM CFD Release 16.1 
 ANSYS Composite PrepPost Release 16.1   
 ANSYS Icepak (includes ANSYS CFD-Post) Release 16.1 
 ANSYS, Inc. License Manager Release 16.1


          *****  ANSYS COMMAND LINE ARGUMENTS  *****
  BATCH MODE REQUESTED (-b)    = NOLIST
  INPUT FILE COPY MODE (-c)    = COPY
  SHARED MEMORY PARALLEL REQUESTED
    SINGLE PROCESS WITH   2 THREADS REQUESTED
    TOTAL OF     2 CORES REQUESTED
  DESIGNXPLORER REQUESTED
  START-UP FILE MODE           = NOREAD
  STOP FILE MODE               = NOREAD

 RELEASE= Release 16.1         BUILD= 16.1      UP20150325   VERSION=WINDOWS x64 
 CURRENT JOBNAME=file  23:28:35  MAR 28, 2016 CP=      1.201


 PARAMETER _DS_PROGRESS =     999.0000000    

 /INPUT FILE= ds.dat  LINE=       0



 DO NOT WRITE ELEMENT RESULTS INTO DATABASE

 *GET  _WALLSTRT  FROM  ACTI  ITEM=TIME WALL  VALUE=  23.4763889    

 TITLE= 
 UpperTrussFullAnsys--Static Structural (B5)                                   


 SET PARAMETER DIMENSIONS ON  _WB_PROJECTSCRATCH_DIR
  TYPE=STRI  DIMENSIONS=      248        1        1

 PARAMETER _WB_PROJECTSCRATCH_DIR(1) = C:\Users\hughest1\EngineeringWorkspace\RGP005_AeroMounts\_ProjectScratch\ScrAA6D\

 SET PARAMETER DIMENSIONS ON  _WB_SOLVERFILES_DIR
  TYPE=STRI  DIMENSIONS=      248        1        1

 PARAMETER _WB_SOLVERFILES_DIR(1) = C:\Users\hughest1\EngineeringWorkspace\RGP005_AeroMounts\UpperTrussFullAnsys_files\dp0\SYS\MECH\

 SET PARAMETER DIMENSIONS ON  _WB_USERFILES_DIR
  TYPE=STRI  DIMENSIONS=      248        1        1

 PARAMETER _WB_USERFILES_DIR(1) = C:\Users\hughest1\EngineeringWorkspace\RGP005_AeroMounts\UpperTrussFullAnsys_files\user_files\
 --- Data in consistent BIN units. See Solving Units in the help system for more

 U.S. CUSTOMARY INCH UNITS SPECIFIED FOR INTERNAL    
  LENGTH      = INCHES (IN)
  MASS        = LBF-S**2/IN 
  TIME        = SECONDS (SEC)  
  TEMPERATURE = FAHRENHEIT
  TOFFSET     = 460.0
  FORCE       = LBF
  HEAT        = IN-LBF
  PRESSURE    = PSI (LBF/IN**2)
  ENERGY      = IN-LBF
  POWER       = IN-LBF/SEC

 INPUT  UNITS ARE ALSO SET TO BIN 

 *** ANSYS - ENGINEERING ANALYSIS SYSTEM  RELEASE Release 16.1     16.1     ***
 ANSYS Academic Research                           
 00202440  VERSION=WINDOWS x64   23:28:35  MAR 28, 2016 CP=      1.279

 UpperTrussFullAnsys--Static Structural (B5)                                   



          ***** ANSYS ANALYSIS DEFINITION (PREP7) *****
 *********** Nodes for the whole assembly ***********
 *********** Elements for Body 1 "Upper Mount Truss-1" ***********
 *********** Elements for Body 2 "Upper Mount Truss-2" ***********
 *********** Elements for Body 3 "Upper Shear Plate-1" ***********
 *********** Send User Defined Coordinate System(s) ***********
 *********** Set Reference Temperature ***********
 *********** Send Materials ***********
 *********** Create Contact "Bonded - Upper Mount Truss-2 To Upper Shear Plate-1
             Real Constant Set For Above Contact Is 5 & 4
 *********** Create Contact "Bonded - Upper Shear Plate-1 To Upper Mount Truss-1
             Real Constant Set For Above Contact Is 7 & 6
 *********** Create Contact "Contact Region" ***********
             Real Constant Set For Above Contact Is 9 & 8
 *********** Create Contact "Contact Region 2" ***********
             Real Constant Set For Above Contact Is 11 & 10
 *********** Fixed Supports ***********
 *********** Define Force Using Surface Effect Elements ***********
 *********** Define Force Using Surface Effect Elements ***********
 *********** Create Bearing Load ***********
 *********** Create Bearing Load ***********


 ***** ROUTINE COMPLETED *****  CP =         1.950


 --- Number of total nodes = 88768
 --- Number of contact elements = 15680
 --- Number of spring elements = 0
 --- Number of bearing elements = 0
 --- Number of solid elements = 14029
 --- Number of total elements = 29709

 *GET  _WALLBSOL  FROM  ACTI  ITEM=TIME WALL  VALUE=  23.4766667    
 ****************************************************************************
 *************************    SOLUTION       ********************************
 ****************************************************************************

 *****  ANSYS SOLUTION ROUTINE  *****


 PERFORM A STATIC ANALYSIS
  THIS WILL BE A NEW ANALYSIS

 USE A MAXIMUM OF     1 EQUILIBRIUM ITERATIONS EACH SUBSTEP

 *** WARNING ***                         CP =       1.981   TIME= 23:28:36
 Using 1 iteration per substep may result in unconverged solutions for   
 nonlinear analysis and the program may not indicate divergence in this  
 case.  Check your results.                                              

 DO NOT USE PREDICTOR METHOD FOR  ALL DEGREES OF FREEDOM

 USE PRECONDITIONED CONJUGATE GRADIENT SOLVER
  CONVERGENCE TOLERANCE = 1.00000E-08
  MAXIMUM ITERATION     = NumNode*DofPerNode*  1.0000    

 CONTACT INFORMATION PRINTOUT LEVEL       1

 NLDIAG: Nonlinear diagnostics CONT option is set to ON. 
         Writing frequency : each ITERATION.

 DO NOT SAVE ANY RESTART FILES AT ALL
 ****************************************************
 ******************* SOLVE FOR LS 1 ****************

 SELECT       FOR ITEM=TYPE COMPONENT=    
  IN RANGE        12 TO         12 STEP          1

         24  ELEMENTS (OF      29709  DEFINED) SELECTED BY  ESEL  COMMAND.

 SELECT      ALL NODES HAVING ANY ELEMENT IN ELEMENT SET.

       88 NODES (OF    88768  DEFINED) SELECTED FROM
       24 SELECTED ELEMENTS BY NSLE COMMAND.

 SPECIFIED SURFACE LOAD PRES FOR ALL SELECTED ELEMENTS  LKEY =  1   KVAL = 1
      SET ACCORDING TO TABLE PARAMETER = _LOADVARI268X                   

 SPECIFIED SURFACE LOAD PRES FOR ALL SELECTED ELEMENTS  LKEY =  2   KVAL = 1
      SET ACCORDING TO TABLE PARAMETER = _LOADVARI268Y                   

 SPECIFIED SURFACE LOAD PRES FOR ALL SELECTED ELEMENTS  LKEY =  3   KVAL = 1
      SET ACCORDING TO TABLE PARAMETER = _LOADVARI268Z                   

 SELECT       FOR ITEM=TYPE COMPONENT=    
  IN RANGE        13 TO         13 STEP          1

         24  ELEMENTS (OF      29709  DEFINED) SELECTED BY  ESEL  COMMAND.

 SELECT      ALL NODES HAVING ANY ELEMENT IN ELEMENT SET.

       88 NODES (OF    88768  DEFINED) SELECTED FROM
       24 SELECTED ELEMENTS BY NSLE COMMAND.

 SPECIFIED SURFACE LOAD PRES FOR ALL SELECTED ELEMENTS  LKEY =  1   KVAL = 1
      SET ACCORDING TO TABLE PARAMETER = _LOADVARI270X                   

 SPECIFIED SURFACE LOAD PRES FOR ALL SELECTED ELEMENTS  LKEY =  2   KVAL = 1
      SET ACCORDING TO TABLE PARAMETER = _LOADVARI270Y                   

 SPECIFIED SURFACE LOAD PRES FOR ALL SELECTED ELEMENTS  LKEY =  3   KVAL = 1
      SET ACCORDING TO TABLE PARAMETER = _LOADVARI270Z                   

 ALL SELECT   FOR ITEM=NODE COMPONENT=    
  IN RANGE         1 TO      88768 STEP          1

      88768  NODES (OF      88768  DEFINED) SELECTED BY NSEL  COMMAND.

 ALL SELECT   FOR ITEM=ELEM COMPONENT=    
  IN RANGE         1 TO      29709 STEP          1

      29709  ELEMENTS (OF      29709  DEFINED) SELECTED BY  ESEL  COMMAND.

 SELECT       FOR ITEM=TYPE COMPONENT=    
  IN RANGE        14 TO         14 STEP          1

         24  ELEMENTS (OF      29709  DEFINED) SELECTED BY  ESEL  COMMAND.

 SPECIFIED SURFACE LOAD PRES FOR ALL SELECTED ELEMENTS  LKEY =  5   KVAL = 1
     VALUES =     0.0000         1.0000         0.0000         0.0000    

 COORDINATE SYSTEM     11 DEFINITION.  TYPE= 0  (CARTESIAN)  
   XC,YC,ZC=  0.0000      0.0000      0.0000    
   ANGLES=  -92.99    0.00    0.00   PARAMETERS=   1.000   1.000
   ORIENTATION= -0.05 -1.00  0.00   1.00 -0.05  0.00   0.00  0.00  1.00

 ACTIVE COORDINATE SYSTEM SET TO     11  (CARTESIAN)  

 ACTIVE COORDINATE SYSTEM SET TO      0  (CARTESIAN)  

 PARAMETER _V1 =   -0.5209197191E-01

 PARAMETER _V2 =   -0.9986422915    

 PARAMETER _V3 =     0.000000000    

 *GET  _NECURR   FROM  ELEM  ITEM=COUN           VALUE=  24.0000000    

 PARAMETER _ECURR =     0.000000000    

 PARAMETER _TOTAL =     0.000000000    

 *DO LOOP ON PARAMETER= _I FROM  1.0000     TO  24.000     BY  1.0000    

 PARAMETER _ECURR =     29662.00000    

 PARAMETER _NORMX =    0.9238795484    

 PARAMETER _NORMY =    0.3826833941    

 PARAMETER _NORMZ =   -0.1871007339E-16

 PARAMETER _NORMMAG =     1.000000000    

 PARAMETER _NORMX =    0.9238795484    

 PARAMETER _NORMY =    0.3826833941    

 PARAMETER _NORMZ =   -0.1871007339E-16

 PARAMETER _DOT =   -0.4302905291    

 *IF  _dot                              ( = -0.430291     )  GT  
      -.00001                           ( = -0.100000E-04 )  THEN    

 *ELSE

 ACTIVE COORDINATE SYSTEM SET TO     11  (CARTESIAN)  

 *GET  _INDD     FROM  ELEM   29662  ITEM=APRO X         VALUE= 0.337563346E-02

 ACTIVE COORDINATE SYSTEM SET TO      0  (CARTESIAN)  

 PARAMETER _TOTAL =    0.3375633461E-02

 *ENDIF

 *ENDDO  INDEX= _I                              

 *GET  _NECURR   FROM  ELEM  ITEM=COUN           VALUE=  12.0000000    

 *IF  _necurr                           ( =   12.0000     )  EQ  
      0                                 ( =   0.00000     )  THEN    

 *ENDIF

 PARAMETER _MAG =     227.0983282    

 PARAMETER _MAG =     3697.676107    

 SPECIFIED SURFACE LOAD PRES FOR ALL SELECTED ELEMENTS  LKEY =  5   KVAL = 1
     VALUES =     3697.7        -11.830        -226.79         0.0000    

 ALL SELECT   FOR ITEM=NODE COMPONENT=    
  IN RANGE         1 TO      88768 STEP          1

      88768  NODES (OF      88768  DEFINED) SELECTED BY NSEL  COMMAND.

 ALL SELECT   FOR ITEM=ELEM COMPONENT=    
  IN RANGE         1 TO      29709 STEP          1

      29709  ELEMENTS (OF      29709  DEFINED) SELECTED BY  ESEL  COMMAND.

 SELECT       FOR ITEM=TYPE COMPONENT=    
  IN RANGE        15 TO         15 STEP          1

         24  ELEMENTS (OF      29709  DEFINED) SELECTED BY  ESEL  COMMAND.

 SPECIFIED SURFACE LOAD PRES FOR ALL SELECTED ELEMENTS  LKEY =  5   KVAL = 1
     VALUES =     0.0000         1.0000         0.0000         0.0000    

 COORDINATE SYSTEM     11 DEFINITION.  TYPE= 0  (CARTESIAN)  
   XC,YC,ZC=  0.0000      0.0000      0.0000    
   ANGLES=  -91.23    0.00    0.00   PARAMETERS=   1.000   1.000
   ORIENTATION= -0.02 -1.00  0.00   1.00 -0.02  0.00   0.00  0.00  1.00

 ACTIVE COORDINATE SYSTEM SET TO     11  (CARTESIAN)  

 ACTIVE COORDINATE SYSTEM SET TO      0  (CARTESIAN)  

 PARAMETER _V1 =   -0.2146866075E-01

 PARAMETER _V2 =   -0.9997695217    

 PARAMETER _V3 =     0.000000000    

 *GET  _NECURR   FROM  ELEM  ITEM=COUN           VALUE=  24.0000000    

 PARAMETER _ECURR =     0.000000000    

 PARAMETER _TOTAL =     0.000000000    

 *DO LOOP ON PARAMETER= _I FROM  1.0000     TO  24.000     BY  1.0000    

 PARAMETER _ECURR =     29686.00000    

 PARAMETER _NORMX =    0.9238795484    

 PARAMETER _NORMY =    0.3826833941    

 PARAMETER _NORMZ =   -0.1871007361E-16

 PARAMETER _NORMMAG =     1.000000000    

 PARAMETER _NORMX =    0.9238795484    

 PARAMETER _NORMY =    0.3826833941    

 PARAMETER _NORMZ =   -0.1871007361E-16

 PARAMETER _DOT =   -0.4024296505    

 *IF  _dot                              ( = -0.402430     )  GT  
      -.00001                           ( = -0.100000E-04 )  THEN    

 *ELSE

 ACTIVE COORDINATE SYSTEM SET TO     11  (CARTESIAN)  

 *GET  _INDD     FROM  ELEM   29686  ITEM=APRO X         VALUE= 0.315706454E-02

 ACTIVE COORDINATE SYSTEM SET TO      0  (CARTESIAN)  

 PARAMETER _TOTAL =    0.3157064543E-02

 *ENDIF

 *ENDDO  INDEX= _I                              

 *GET  _NECURR   FROM  ELEM  ITEM=COUN           VALUE=  12.0000000    

 *IF  _necurr                           ( =   12.0000     )  EQ  
      0                                 ( =   0.00000     )  THEN    

 *ENDIF

 PARAMETER _MAG =     226.8422771    

 PARAMETER _MAG =     3689.342634    

 SPECIFIED SURFACE LOAD PRES FOR ALL SELECTED ELEMENTS  LKEY =  5   KVAL = 1
     VALUES =     3689.3        -4.8700        -226.79         0.0000    

 ALL SELECT   FOR ITEM=NODE COMPONENT=    
  IN RANGE         1 TO      88768 STEP          1

      88768  NODES (OF      88768  DEFINED) SELECTED BY NSEL  COMMAND.

 ALL SELECT   FOR ITEM=ELEM COMPONENT=    
  IN RANGE         1 TO      29709 STEP          1

      29709  ELEMENTS (OF      29709  DEFINED) SELECTED BY  ESEL  COMMAND.

 PRINTOUT RESUMED BY /GOP

 USE       1 SUBSTEPS INITIALLY THIS LOAD STEP FOR ALL  DEGREES OF FREEDOM
 FOR AUTOMATIC TIME STEPPING:
   USE      1 SUBSTEPS AS A MAXIMUM
   USE      1 SUBSTEPS AS A MINIMUM

 TIME=  1.0000    

 ERASE THE CURRENT DATABASE OUTPUT CONTROL TABLE.


 WRITE ALL  ITEMS TO THE DATABASE WITH A FREQUENCY OF NONE
   FOR ALL APPLICABLE ENTITIES

 WRITE NSOL ITEMS TO THE DATABASE WITH A FREQUENCY OF ALL 
   FOR ALL APPLICABLE ENTITIES

 WRITE RSOL ITEMS TO THE DATABASE WITH A FREQUENCY OF ALL 
   FOR ALL APPLICABLE ENTITIES

 WRITE STRS ITEMS TO THE DATABASE WITH A FREQUENCY OF ALL 
   FOR ALL APPLICABLE ENTITIES

 WRITE EPEL ITEMS TO THE DATABASE WITH A FREQUENCY OF ALL 
   FOR ALL APPLICABLE ENTITIES

 WRITE EPPL ITEMS TO THE DATABASE WITH A FREQUENCY OF ALL 
   FOR ALL APPLICABLE ENTITIES

 NONLINEAR STABILIZATION CONTROL:
 KEY=OFF 


 *GET  ANSINTER_  FROM  ACTI  ITEM=INT        VALUE=  0.00000000    

 *IF  ANSINTER_                         ( =   0.00000     )  NE  
      0                                 ( =   0.00000     )  THEN    

 *ENDIF

 *****  ANSYS SOLVE    COMMAND  *****

 *** WARNING ***                         CP =       2.059   TIME= 23:28:36
 Element shape checking is currently inactive.  Issue SHPP,ON or         
 SHPP,WARN to reactivate, if desired.                                    

 *** NOTE ***                            CP =       2.590   TIME= 23:28:36
 The model data was checked and warning messages were found.             
  Please review output or errors file (                                  
 C:\Users\hughest1\EngineeringWorkspace\RGP005_AeroMounts\_ProjectScratc 
 ch\ScrAA6D\file.err ) for these warning messages.                       

 *** SELECTION OF ELEMENT TECHNOLOGIES FOR APPLICABLE ELEMENTS ***
      --- GIVE SUGGESTIONS AND RESET THE KEY OPTIONS ---

 ELEMENT TYPE    1 IS SOLID186. KEYOPT(2)=0 IS SUGGESTED AND HAS BEEN RESET.
  KEYOPT(1-12)=    0    0    0    0    0    0    0    0    0    0    0    0

 ELEMENT TYPE    2 IS SOLID186. KEYOPT(2)=0 IS SUGGESTED AND HAS BEEN RESET.
  KEYOPT(1-12)=    0    0    0    0    0    0    0    0    0    0    0    0

 ELEMENT TYPE    3 IS SOLID186. KEYOPT(2)=0 IS SUGGESTED AND HAS BEEN RESET.
  KEYOPT(1-12)=    0    0    0    0    0    0    0    0    0    0    0    0



 *** ANSYS - ENGINEERING ANALYSIS SYSTEM  RELEASE Release 16.1     16.1     ***
 ANSYS Academic Research                           
 00202440  VERSION=WINDOWS x64   23:28:36  MAR 28, 2016 CP=      2.621

 UpperTrussFullAnsys--Static Structural (B5)                                   



                       S O L U T I O N   O P T I O N S

   PROBLEM DIMENSIONALITY. . . . . . . . . . . . .3-D                  
   DEGREES OF FREEDOM. . . . . . UX   UY   UZ  
   ANALYSIS TYPE . . . . . . . . . . . . . . . . .STATIC (STEADY-STATE)
   OFFSET TEMPERATURE FROM ABSOLUTE ZERO . . . . .  459.67    
   EQUATION SOLVER OPTION. . . . . . . . . . . . .PCG                
      TOLERANCE. . . . . . . . . . . . . . . . . . 1.00000E-08
   NEWTON-RAPHSON OPTION . . . . . . . . . . . . .PROGRAM CHOSEN   
   GLOBALLY ASSEMBLED MATRIX . . . . . . . . . . .SYMMETRIC  

 *** WARNING ***                         CP =       2.683   TIME= 23:28:36
 Material number 5 (used by element 14030 ) should normally have at      
 least one MP or one TB type command associated with it.  Output of      
 energy by material may not be available.                                

 *** NOTE ***                            CP =       2.839   TIME= 23:28:36
 The step data was checked and warning messages were found.              
  Please review output or errors file (                                  
 C:\Users\hughest1\EngineeringWorkspace\RGP005_AeroMounts\_ProjectScratc 
 ch\ScrAA6D\file.err ) for these warning messages.                       

 *** NOTE ***                            CP =       2.839   TIME= 23:28:36
 This nonlinear analysis defaults to using the full Newton-Raphson       
 solution procedure.  This can be modified using the NROPT command.      

 *** NOTE ***                            CP =       2.839   TIME= 23:28:36
 The conditions for direct assembly have been met.  No .emat or .erot    
 files will be produced.                                                 

                      L O A D   S T E P   O P T I O N S

   LOAD STEP NUMBER. . . . . . . . . . . . . . . .     1
   TIME AT END OF THE LOAD STEP. . . . . . . . . .  1.0000    
   AUTOMATIC TIME STEPPING . . . . . . . . . . . .    ON
      INITIAL NUMBER OF SUBSTEPS . . . . . . . . .     1
      MAXIMUM NUMBER OF SUBSTEPS . . . . . . . . .     1
      MINIMUM NUMBER OF SUBSTEPS . . . . . . . . .     1
   MAXIMUM NUMBER OF EQUILIBRIUM ITERATIONS. . . .     1
   STEP CHANGE BOUNDARY CONDITIONS . . . . . . . .    NO
   TERMINATE ANALYSIS IF NOT CONVERGED . . . . . .YES (EXIT)  
   CONVERGENCE CONTROLS. . . . . . . . . . . . . .USE DEFAULTS
   PRINT OUTPUT CONTROLS . . . . . . . . . . . . .NO PRINTOUT
   DATABASE OUTPUT CONTROLS
      ITEM     FREQUENCY   COMPONENT
       ALL       NONE               
      NSOL        ALL               
      RSOL        ALL               
      STRS        ALL               
      EPEL        ALL               
      EPPL        ALL               


 SOLUTION MONITORING INFO IS WRITTEN TO FILE= file.mntr                                                                                                                                                                                                                                                           

 *** NOTE ***                            CP =       5.023   TIME= 23:28:38
 It is highly recommended to use the auto contact setting option by      
 issuing CNCHECK,AUTO command for this problem in order to achieve       
 better convergence.                                                     

 *** NOTE ***                            CP =       5.023   TIME= 23:28:38
 Symmetric Deformable- deformable contact pair identified by real        
 constant set 4 and contact element type 4 has been set up.  The         
 companion pair has real constant set ID 5.  Both pairs should have the  
 same behavior.                                                          
 ANSYS will keep the current pair and deactivate its companion pair,     
 resulting in asymmetric contact.                                        
 Contact algorithm: Augmented Lagrange method
 Contact detection at: Gauss integration point
 Contact stiffness factor FKN                  10.000    
 The resulting initial contact stiffness      0.20459E+11
 Default penetration tolerance factor FTOLN   0.10000    
 The resulting penetration tolerance          0.10067E-01
 Default opening contact stiffness OPSF will be used.
 Default tangent stiffness factor FKT          1.0000    
 Default elastic slip factor SLTOL            0.50000E-02
 The resulting elastic slip                   0.47739E-03
 Update contact stiffness at each iteration
 Default Max. friction stress TAUMAX          0.10000E+21
 Average contact surface length               0.95479E-01
 Average contact pair depth                   0.10067    
 Default pinball region factor PINB           0.25000    
 The resulting pinball region                 0.25167E-01
 Initial penetration/gap is excluded.
 Bonded contact (always) is defined.

 *** NOTE ***                            CP =       5.023   TIME= 23:28:38
 Max.  Initial penetration 1.088371596E-08 was detected between contact  
 element 14525 and target element 18924.                                 
 ****************************************
  

 *** NOTE ***                            CP =       5.023   TIME= 23:28:38
 Symmetric Deformable- deformable contact pair identified by real        
 constant set 5 and contact element type 4 has been set up.  The         
 companion pair has real constant set ID 4.  Both pairs should have the  
 same behavior.                                                          
 ANSYS will deactivate the current pair and keep its companion pair,     
 resulting in asymmetric contact.                                        
 Contact algorithm: Augmented Lagrange method
 Contact detection at: Gauss integration point
 Contact stiffness factor FKN                  10.000    
 The resulting initial contact stiffness      0.20459E+11
 Default penetration tolerance factor FTOLN   0.10000    
 The resulting penetration tolerance          0.32033E-02
 Default opening contact stiffness OPSF will be used.
 Default tangent stiffness factor FKT          1.0000    
 Default elastic slip factor SLTOL            0.50000E-02
 The resulting elastic slip                   0.47555E-03
 Update contact stiffness at each iteration
 Default Max. friction stress TAUMAX          0.10000E+21
 Average contact surface length               0.95111E-01
 Average contact pair depth                   0.32033E-01
 Default pinball region factor PINB           0.25000    
 The resulting pinball region                 0.80084E-02
 Initial penetration/gap is excluded.
 Bonded contact (always) is defined.

 *** NOTE ***                            CP =       5.023   TIME= 23:28:38
 Max.  Initial penetration 1.1625398E-08 was detected between contact    
 element 16266 and target element 14053.                                 
 ****************************************
  

 *** NOTE ***                            CP =       5.023   TIME= 23:28:38
 Symmetric Deformable- deformable contact pair identified by real        
 constant set 6 and contact element type 6 has been set up.  The         
 companion pair has real constant set ID 7.  Both pairs should have the  
 same behavior.                                                          
 ANSYS will deactivate the current pair and keep its companion pair,     
 resulting in asymmetric contact.                                        
 Contact algorithm: Augmented Lagrange method
 Contact detection at: Gauss integration point
 Contact stiffness factor FKN                  10.000    
 The resulting initial contact stiffness      0.20459E+11
 Default penetration tolerance factor FTOLN   0.10000    
 The resulting penetration tolerance          0.32033E-02
 Default opening contact stiffness OPSF will be used.
 Default tangent stiffness factor FKT          1.0000    
 Default elastic slip factor SLTOL            0.50000E-02
 The resulting elastic slip                   0.47555E-03
 Update contact stiffness at each iteration
 Default Max. friction stress TAUMAX          0.10000E+21
 Average contact surface length               0.95111E-01
 Average contact pair depth                   0.32033E-01
 Default pinball region factor PINB           0.25000    
 The resulting pinball region                 0.80084E-02
 Initial penetration/gap is excluded.
 Bonded contact (always) is defined.

 *** NOTE ***                            CP =       5.023   TIME= 23:28:38
 Max.  Initial penetration 8.823118607E-09 was detected between contact  
 element 24119 and target element 26413.                                 
 ****************************************
  

 *** NOTE ***                            CP =       5.023   TIME= 23:28:38
 Symmetric Deformable- deformable contact pair identified by real        
 constant set 7 and contact element type 6 has been set up.  The         
 companion pair has real constant set ID 6.  Both pairs should have the  
 same behavior.                                                          
 ANSYS will keep the current pair and deactivate its companion pair,     
 resulting in asymmetric contact.                                        
 Contact algorithm: Augmented Lagrange method
 Contact detection at: Gauss integration point
 Contact stiffness factor FKN                  10.000    
 The resulting initial contact stiffness      0.20459E+11
 Default penetration tolerance factor FTOLN   0.10000    
 The resulting penetration tolerance          0.10067E-01
 Default opening contact stiffness OPSF will be used.
 Default tangent stiffness factor FKT          1.0000    
 Default elastic slip factor SLTOL            0.50000E-02
 The resulting elastic slip                   0.47739E-03
 Update contact stiffness at each iteration
 Default Max. friction stress TAUMAX          0.10000E+21
 Average contact surface length               0.95479E-01
 Average contact pair depth                   0.10067    
 Default pinball region factor PINB           0.25000    
 The resulting pinball region                 0.25167E-01
 Initial penetration/gap is excluded.
 Bonded contact (always) is defined.

 *** NOTE ***                            CP =       5.023   TIME= 23:28:38
 Max.  Initial penetration 8.683389758E-09 was detected between contact  
 element 25888 and target element 21223.                                 
 ****************************************
  

 *** NOTE ***                            CP =       5.023   TIME= 23:28:38
 Symmetric Deformable- deformable contact pair identified by real        
 constant set 8 and contact element type 8 has been set up.  The         
 companion pair has real constant set ID 9.  Both pairs should have the  
 same behavior.                                                          
 ANSYS will deactivate the current pair and keep its companion pair,     
 resulting in asymmetric contact.                                        
 Contact algorithm: Augmented Lagrange method
 Contact detection at: Gauss integration point
 Contact stiffness factor FKN                  10.000    
 The resulting initial contact stiffness      0.20612E+11
 Default penetration tolerance factor FTOLN   0.10000    
 The resulting penetration tolerance          0.99921E-02
 Default opening contact stiffness OPSF will be used.
 Default tangent stiffness factor FKT          1.0000    
 Default elastic slip factor SLTOL            0.50000E-02
 The resulting elastic slip                   0.47739E-03
 Update contact stiffness at each iteration
 Default Max. friction stress TAUMAX          0.10000E+21
 Average contact surface length               0.95479E-01
 Average contact pair depth                   0.99921E-01
 Default pinball region factor PINB           0.25000    
 The resulting pinball region                 0.24980E-01
 Initial penetration/gap is excluded.
 Bonded contact (always) is defined.

 *** NOTE ***                            CP =       5.023   TIME= 23:28:38
 Max.  Initial penetration 8.683389758E-09 was detected between contact  
 element 27016 and target element 27781.                                 
 ****************************************
  

 *** NOTE ***                            CP =       5.023   TIME= 23:28:38
 Symmetric Deformable- deformable contact pair identified by real        
 constant set 9 and contact element type 8 has been set up.  The         
 companion pair has real constant set ID 8.  Both pairs should have the  
 same behavior.                                                          
 ANSYS will keep the current pair and deactivate its companion pair,     
 resulting in asymmetric contact.                                        
 Contact algorithm: Augmented Lagrange method
 Contact detection at: Gauss integration point
 Contact stiffness factor FKN                  10.000    
 The resulting initial contact stiffness      0.20612E+11
 Default penetration tolerance factor FTOLN   0.10000    
 The resulting penetration tolerance          0.32027E-02
 Default opening contact stiffness OPSF will be used.
 Default tangent stiffness factor FKT          1.0000    
 Default elastic slip factor SLTOL            0.50000E-02
 The resulting elastic slip                   0.47559E-03
 Update contact stiffness at each iteration
 Default Max. friction stress TAUMAX          0.10000E+21
 Average contact surface length               0.95117E-01
 Average contact pair depth                   0.32027E-01
 Default pinball region factor PINB           0.25000    
 The resulting pinball region                 0.80067E-02
 Initial penetration/gap is excluded.
 Bonded contact (always) is defined.

 *** NOTE ***                            CP =       5.023   TIME= 23:28:38
 Max.  Initial penetration 8.823118607E-09 was detected between contact  
 element 27404 and target element 26753.                                 
 ****************************************
  

 *** NOTE ***                            CP =       5.023   TIME= 23:28:38
 Symmetric Deformable- deformable contact pair identified by real        
 constant set 10 and contact element type 10 has been set up.  The       
 companion pair has real constant set ID 11.  Both pairs should have     
 the same behavior.                                                      
 ANSYS will deactivate the current pair and keep its companion pair,     
 resulting in asymmetric contact.                                        
 Contact algorithm: Augmented Lagrange method
 Contact detection at: Gauss integration point
 Contact stiffness factor FKN                  10.000    
 The resulting initial contact stiffness      0.20612E+11
 Default penetration tolerance factor FTOLN   0.10000    
 The resulting penetration tolerance          0.99921E-02
 Default opening contact stiffness OPSF will be used.
 Default tangent stiffness factor FKT          1.0000    
 Default elastic slip factor SLTOL            0.50000E-02
 The resulting elastic slip                   0.47739E-03
 Update contact stiffness at each iteration
 Default Max. friction stress TAUMAX          0.10000E+21
 Average contact surface length               0.95479E-01
 Average contact pair depth                   0.99921E-01
 Default pinball region factor PINB           0.25000    
 The resulting pinball region                 0.24980E-01
 Initial penetration/gap is excluded.
 Bonded contact (always) is defined.

 *** NOTE ***                            CP =       5.023   TIME= 23:28:38
 Max.  Initial penetration 1.088371596E-08 was detected between contact  
 element 28419 and target element 29382.                                 
 ****************************************
  

 *** NOTE ***                            CP =       5.023   TIME= 23:28:38
 Symmetric Deformable- deformable contact pair identified by real        
 constant set 11 and contact element type 10 has been set up.  The       
 companion pair has real constant set ID 10.  Both pairs should have     
 the same behavior.                                                      
 ANSYS will keep the current pair and deactivate its companion pair,     
 resulting in asymmetric contact.                                        
 Contact algorithm: Augmented Lagrange method
 Contact detection at: Gauss integration point
 Contact stiffness factor FKN                  10.000    
 The resulting initial contact stiffness      0.20612E+11
 Default penetration tolerance factor FTOLN   0.10000    
 The resulting penetration tolerance          0.32021E-02
 Default opening contact stiffness OPSF will be used.
 Default tangent stiffness factor FKT          1.0000    
 Default elastic slip factor SLTOL            0.50000E-02
 The resulting elastic slip                   0.47696E-03
 Update contact stiffness at each iteration
 Default Max. friction stress TAUMAX          0.10000E+21
 Average contact surface length               0.95391E-01
 Average contact pair depth                   0.32021E-01
 Default pinball region factor PINB           0.25000    
 The resulting pinball region                 0.80053E-02
 Initial penetration/gap is excluded.
 Bonded contact (always) is defined.

 *** NOTE ***                            CP =       5.023   TIME= 23:28:38
 Max.  Initial penetration 1.1625398E-08 was detected between contact    
 element 28930 and target element 28106.                                 
 ****************************************
  
  
  


 *** NOTE ***                            CP =       5.273   TIME= 23:28:38
 The PCG solver has automatically set the level of difficulty for this   
 model to 2.                                                             
  
 *************************************************
  SUMMARY FOR CONTACT PAIR IDENTIFIED BY REAL CONSTANT SET           4
 Max.  Penetration of -2.13163774E-14 has been detected between contact  
 element 14643 and target element 18454.                                 
  
 Max.  Geometrical gap of 9.108061729E-09 has been detected between      
 contact element 14525 and target element 18924.                         
  
 Max.  Geometrical penetration of -1.088370175E-08 has been detected     
 between contact element 14525 and target element 18924.                 
 For total 447 contact elements, there are 270 elements are in contact.  
 There are 270 elements are in sticking.                                 
 Contacting area 2.21954243.                                             
 Max.  Pinball distance 2.516656241E-02.                                 
 One of the contact searching regions contains at least 14 target        
 elements.                                                               
 Max.  Pressure/force 4.361129274E-04.                                   
 Max.  Normal stiffness 2.045905452E+10.                                 
 Min.  Normal stiffness 2.045905452E+10.                                 
 Max.  Tangential stiffness 1.61779539E+10.                              
 Min.  Tangential stiffness 1.61779539E+10.                              
 *************************************************
  
 *************************************************
  SUMMARY FOR CONTACT PAIR IDENTIFIED BY REAL CONSTANT SET           5

 *** NOTE ***                            CP =      10.795   TIME= 23:28:41
 Contact pair is inactive.                                               
  
 *************************************************
  SUMMARY FOR CONTACT PAIR IDENTIFIED BY REAL CONSTANT SET           6

 *** NOTE ***                            CP =      10.795   TIME= 23:28:41
 Contact pair is inactive.                                               
  
 *************************************************
  SUMMARY FOR CONTACT PAIR IDENTIFIED BY REAL CONSTANT SET           7
 Max.  Penetration of -1.421091827E-14 has been detected between contact 
 element 25815 and target element 21151.                                 
  
 Max.  Geometrical gap of 7.824936602E-09 has been detected between      
 contact element 25888 and target element 21223.                         
  
 Max.  Geometrical penetration of -8.683382653E-09 has been detected     
 between contact element 25888 and target element 21223.                 
 For total 447 contact elements, there are 270 elements are in contact.  
 There are 270 elements are in sticking.                                 
 Contacting area 2.21954243.                                             
 Max.  Pinball distance 2.516656241E-02.                                 
 One of the contact searching regions contains at least 15 target        
 elements.                                                               
 Max.  Pressure/force 2.907419516E-04.                                   
 Max.  Normal stiffness 2.045905452E+10.                                 
 Min.  Normal stiffness 2.045905452E+10.                                 
 Max.  Tangential stiffness 1.61779539E+10.                              
 Min.  Tangential stiffness 1.61779539E+10.                              
 *************************************************
  
 *************************************************
  SUMMARY FOR CONTACT PAIR IDENTIFIED BY REAL CONSTANT SET           8

 *** NOTE ***                            CP =      10.795   TIME= 23:28:41
 Contact pair is inactive.                                               
  
 *************************************************
  SUMMARY FOR CONTACT PAIR IDENTIFIED BY REAL CONSTANT SET           9
 Max.  Penetration of -1.421091827E-14 has been detected between contact 
 element 27404 and target element 26753.                                 
  
 Max.  Geometrical gap of 8.264096613E-09 has been detected between      
 contact element 27404 and target element 26753.                         
  
 Max.  Geometrical penetration of -8.823118607E-09 has been detected     
 between contact element 27404 and target element 26753.                 
 For total 479 contact elements, there are 275 elements are in contact.  
 There are 275 elements are in sticking.                                 
 Contacting area 2.14812285.                                             
 Max.  Pinball distance 8.006694236E-03.                                 
 One of the contact searching regions contains at least 24 target        
 elements.                                                               
 Max.  Pressure/force 2.929113444E-04.                                   
 Max.  Normal stiffness 2.061171129E+10.                                 
 Min.  Normal stiffness 2.061171129E+10.                                 
 Max.  Tangential stiffness 5.2051154E+09.                               
 Min.  Tangential stiffness 5.2051154E+09.                               
 *************************************************
  
 *************************************************
  SUMMARY FOR CONTACT PAIR IDENTIFIED BY REAL CONSTANT SET          10

 *** NOTE ***                            CP =      10.795   TIME= 23:28:41
 Contact pair is inactive.                                               
  
 *************************************************
  SUMMARY FOR CONTACT PAIR IDENTIFIED BY REAL CONSTANT SET          11
 Max.  Penetration of -2.131637739E-14 has been detected between contact 
 element 28795 and target element 28238.                                 
  
 Max.  Geometrical gap of 9.134934575E-09 has been detected between      
 contact element 28930 and target element 28106.                         
  
 Max.  Geometrical penetration of -1.1625398E-08 has been detected       
 between contact element 28930 and target element 28106.                 
 For total 477 contact elements, there are 274 elements are in contact.  
 There are 274 elements are in sticking.                                 
 Contacting area 2.15625235.                                             
 Max.  Pinball distance 8.005323976E-03.                                 
 One of the contact searching regions contains at least 24 target        
 elements.                                                               
 Max.  Pressure/force 4.393670164E-04.                                   
 Max.  Normal stiffness 2.061171129E+10.                                 
 Min.  Normal stiffness 2.061171129E+10.                                 
 Max.  Tangential stiffness 5.18926494E+09.                              
 Min.  Tangential stiffness 5.18926494E+09.                              
 *************************************************


                         ***********  PRECISE MASS SUMMARY  ***********

   TOTAL RIGID BODY MASS MATRIX ABOUT ORIGIN
               Translational mass               |   Coupled translational/rotational mass
        0.25914E-02    0.0000        0.0000     |     0.0000       0.25523E-11  -0.97149E-01
         0.0000       0.25914E-02    0.0000     |   -0.25523E-11    0.0000      -0.13871    
         0.0000        0.0000       0.25914E-02 |    0.97149E-01   0.13871        0.0000    
     ------------------------------------------ | ------------------------------------------
                                                |         Rotational mass (inertia)
                                                |     3.7369        5.1838       0.41622E-04
                                                |     5.1838        7.5775      -0.12456E-06
                                                |    0.41622E-04  -0.12456E-06    11.144    

   TOTAL MASS = 0.25914E-02
     The mass principal axes coincide with the global Cartesian axes

   CENTER OF MASS (X,Y,Z)=   -53.525        37.489       0.98490E-09

   TOTAL INERTIA ABOUT CENTER OF MASS
        0.94863E-01  -0.16141E-01   0.41622E-04
       -0.16141E-01   0.15332      -0.12447E-06
        0.41622E-04  -0.12447E-06   0.77930E-01

   PRINCIPAL INERTIAS =   0.90703E-01   0.15748       0.77929E-01
   ORIENTATION VECTORS OF THE INERTIA PRINCIPAL AXES IN GLOBAL CARTESIAN
     ( 0.968, 0.250, 0.003) (-0.250, 0.968,-0.000) (-0.003,-0.001, 1.000) 


  *** MASS SUMMARY BY ELEMENT TYPE ***

  TYPE      MASS
     1  0.119687E-02
     2  0.119687E-02
     3  0.197668E-03

 Range of element maximum matrix coefficients in global coordinates
 Maximum = 65183438.9 at element 28850.                                  
 Minimum = 773163.681 at element 5662.                                   

   *** ELEMENT MATRIX FORMULATION TIMES
  TYPE    NUMBER   ENAME      TOTAL CP  AVE CP

     1      5673  SOLID186      2.792   0.000492
     2      5673  SOLID186      2.730   0.000481
     3      2683  SOLID186      1.295   0.000483
     4      3130  CONTA174      0.515   0.000164
     5      3130  TARGE170      0.109   0.000035
     6      3130  CONTA174      0.406   0.000130
     7      3130  TARGE170      0.078   0.000025
     8       767  CONTA174      0.312   0.000407
     9       767  TARGE170      0.000   0.000000
    10       765  CONTA174      0.218   0.000285
    11       765  TARGE170      0.031   0.000041
    12        24  SURF154       0.000   0.000000
    13        24  SURF154       0.000   0.000000
    14        24  SURF154       0.000   0.000000
    15        24  SURF154       0.000   0.000000
 Time at end of element matrix formulation CP = 10.8108692.              
     FORCE CONVERGENCE VALUE  =  97.86      CRITERION= 0.4993    
 curEqn=  29701  totEqn=  29701 Job CP sec=      8.526
      Factor Done= 100% Factor Wall sec=      0.053 rate=    7786.2 Mflops
 Iteration=    10 Ratio=  0.126821     Limit=  1.000000E-08 Wall=     0.3
 Iteration=   100 Ratio=  9.044406E-04 Limit=  1.000000E-08 Wall=     3.7
 Iteration=   410 Ratio=  2.798760E-06 Limit=  1.000000E-08 Wall=    15.7

 PRECONDITIONED SOLVER CP TIME      =    28.183
 PRECONDITIONED SOLVER ELAPSED TIME =    28.182
     DISP CONVERGENCE VALUE   = 0.4245      CRITERION= 0.2166E-01

   *** ELEMENT RESULT CALCULATION TIMES
  TYPE    NUMBER   ENAME      TOTAL CP  AVE CP

     1      5673  SOLID186      1.373   0.000242
     2      5673  SOLID186      1.513   0.000267
     3      2683  SOLID186      0.562   0.000209
     4      2968  CONTA174      0.281   0.000095
     6      2968  CONTA174      0.218   0.000074
     8       767  CONTA174      0.062   0.000081
    10       765  CONTA174      0.156   0.000204
    12        24  SURF154       0.000   0.000000
    13        24  SURF154       0.000   0.000000
    14        24  SURF154       0.000   0.000000
    15        24  SURF154       0.000   0.000000

   *** NODAL LOAD CALCULATION TIMES
  TYPE    NUMBER   ENAME      TOTAL CP  AVE CP

     1      5673  SOLID186      0.094   0.000016
     2      5673  SOLID186      0.000   0.000000
     3      2683  SOLID186      0.000   0.000000
     4      2968  CONTA174      0.031   0.000011
     6      2968  CONTA174      0.000   0.000000
     8       767  CONTA174      0.000   0.000000
    10       765  CONTA174      0.000   0.000000
    12        24  SURF154       0.000   0.000000
    13        24  SURF154       0.000   0.000000
    14        24  SURF154       0.000   0.000000
    15        24  SURF154       0.000   0.000000
 *** LOAD STEP     1   SUBSTEP     1  COMPLETED.    CUM ITER =      1
 *** TIME =   1.00000         TIME INC =   1.00000      NEW TRIANG MATRIX


 *** ANSYS BINARY FILE STATISTICS
  BUFFER SIZE USED= 16384
      136.375 MB WRITTEN ON ELEMENT SAVED DATA FILE: file.esav
       28.625 MB WRITTEN ON RESULTS FILE: file.rst
 *************** Write FE CONNECTORS *********

 WRITE OUT CONSTRAINT EQUATIONS TO FILE= file.ce                                                                                                                                                                                                                                                             
 ****************************************************
 *************** FINISHED SOLVE FOR LS 1 *************

 PARAMETER _DS_PROGRESS  DELETED.

 *GET  _WALLASOL  FROM  ACTI  ITEM=TIME WALL  VALUE=  23.4863889    

 PRINTOUT RESUMED BY /GOP

 *GET  _PCGITER  FROM  ACTI  ITEM=SOLU CGIT  VALUE=  693.000000    

 FINISH SOLUTION PROCESSING


 ***** ROUTINE COMPLETED *****  CP =        69.327



 *** ANSYS - ENGINEERING ANALYSIS SYSTEM  RELEASE Release 16.1     16.1     ***
 ANSYS Academic Research                           
 00202440  VERSION=WINDOWS x64   23:29:11  MAR 28, 2016 CP=     69.327

 UpperTrussFullAnsys--Static Structural (B5)                                   



          ***** ANSYS RESULTS INTERPRETATION (POST1) *****

 *** NOTE ***                            CP =      69.327   TIME= 23:29:11
 Reading results into the database (SET command) will update the current 
 displacement and force boundary conditions in the database with the     
 values from the results file for that load set.  Note that any          
 subsequent solutions will use these values unless action is taken to    
 either SAVE the current values or not overwrite them (/EXIT,NOSAVE).    

 Set Encoding of XML File to:ISO-8859-1

 Set Output of XML File to:
     PARM,     ,     ,     ,     ,     ,     ,     ,     ,     ,     ,     ,
         ,     ,     ,     ,     ,     ,     ,

 DATABASE WRITTEN ON FILE  parm.xml                                                                                                                                                                                                                                                            

 EXIT THE ANSYS POST1 DATABASE PROCESSOR


 ***** ROUTINE COMPLETED *****  CP =        69.342



 PRINTOUT RESUMED BY /GOP

 *GET  _WALLDONE  FROM  ACTI  ITEM=TIME WALL  VALUE=  23.4863889    

 PARAMETER _PREPTIME =     1.000000000    

 PARAMETER _SOLVTIME =     35.00000000    

 PARAMETER _POSTTIME =     0.000000000    

 PARAMETER _TOTALTIM =     36.00000000    

 EXIT ANSYS WITHOUT SAVING DATABASE


 NUMBER OF WARNING MESSAGES ENCOUNTERED=          3
 NUMBER OF ERROR   MESSAGES ENCOUNTERED=          0

+--------------------- A N S Y S   S T A T I S T I C S ------------------------+

Release: Release 16.1       Build: 16.1       Update: UP20150325   Platform: WINDOWS x64 
Date Run: 03/28/2016   Time: 23:29
Windows Process ID:        34780

Processor Model: Intel(R) Core(TM) i7-4710MQ CPU @ 2.50GHz

Compiler: Intel(R) FORTRAN Compiler Version 14.0.0  (Build: 20140422)
          Intel(R) C/C++ Compiler Version 14.0.0  (Build: 20140422)
          Intel(R) Math Kernel Library Version 11.1.3 Product Build 20140917

Total number of cores available         :    8
Number of physical cores available      :    4
Number of processes requested           :    1
Number of threads per process requested :    2
Total number of cores requested         :    2 (Shared Memory Parallel)                    

GPU Acceleration: Not Requested

Job Name: file
Working Directory: C:\Users\hughest1\EngineeringWorkspace\RGP005_AeroMounts\_ProjectScratch\ScrAA6D

Total CPU time for main thread                    :       36.7 seconds
Total CPU time summed for all threads             :       69.3 seconds

Elapsed time spent pre-processing model (/PREP7)  :        0.4 seconds
Elapsed time spent solution - preprocessing       :        1.0 seconds
Elapsed time spent computing solution             :       34.6 seconds
Elapsed time spent solution - postprocessing      :        0.0 seconds
Elapsed time spent post-processing model (/POST1) :        0.0 seconds

Equation solver computational rate                :     5289.3 Mflops

Maximum total memory used                         :      311.0 MB
Maximum total memory allocated                    :     2112.0 MB
Maximum total memory available                    :          8 GB

+------------------ E N D   A N S Y S   S T A T I S T I C S -------------------+


 *---------------------------------------------------------------------------*
 |                                                                           |
 |                            ANSYS RUN COMPLETED                            |
 |                                                                           |
 |---------------------------------------------------------------------------|
 |                                                                           |
 | Ansys Release 16.1          Build 16.1         UP20150325     WINDOWS x64 |
 |                                                                           |
 |---------------------------------------------------------------------------|
 |                                                                           |
 | Database Requested(-db)  1024 MB    Scratch Memory Requested      1024 MB |
 | Maximum Database Used      60 MB    Maximum Scratch Memory Used    251 MB |
 |                                                                           |
 |---------------------------------------------------------------------------|
 |                                                                           |
 |        CP Time      (sec) =         69.342       Time  =  23:29:11        |
 |        Elapsed Time (sec) =         38.000       Date  =  03/28/2016      |
 |                                                                           |
 *---------------------------------------------------------------------------*
